
---------- Begin Simulation Statistics ----------
simSeconds                                  36.772311                       # Number of seconds simulated (Second)
simTicks                                 36772310836000                       # Number of ticks simulated (Tick)
finalTick                                36772310836000                       # Number of ticks from beginning of simulation (restored from checkpoints and never reset) (Tick)
simFreq                                  1000000000000                       # The number of ticks per simulated second ((Tick/Second))
hostSeconds                                   1240.72                       # Real time elapsed on the host (Second)
hostTickRate                              29637792720                       # The number of ticks simulated per host second (ticks/s) ((Tick/Second))
hostMemory                                     689972                       # Number of bytes of host memory used (Byte)
simInsts                                    434324454                       # Number of instructions simulated (Count)
simOps                                      434324454                       # Number of ops (including micro ops) simulated (Count)
hostInstRate                                   350057                       # Simulator instruction rate (inst/s) ((Count/Second))
hostOpRate                                     350057                       # Simulator op (including micro ops) rate (op/s) ((Count/Second))
system.clk_domain.clock                          1000                       # Clock period in ticks (Tick)
system.clk_domain.voltage_domain.voltage            1                       # Voltage in Volts (Volt)
system.cpu.numCycles                      36772310836                       # Number of cpu cycles simulated (Cycle)
system.cpu.cpi                              84.665529                       # CPI: cycles per instruction (core level) ((Cycle/Count))
system.cpu.ipc                               0.011811                       # IPC: instructions per cycle (core level) ((Count/Cycle))
system.cpu.numWorkItemsStarted                      0                       # Number of work items this cpu started (Count)
system.cpu.numWorkItemsCompleted                    0                       # Number of work items this cpu completed (Count)
system.cpu.commitStats0.numInsts            434324469                       # Number of instructions committed (thread level) (Count)
system.cpu.commitStats0.numOps              434324469                       # Number of ops (including micro ops) committed (thread level) (Count)
system.cpu.commitStats0.numInstsNotNOP              0                       # Number of instructions committed excluding NOPs or prefetches (Count)
system.cpu.commitStats0.numOpsNotNOP                0                       # Number of Ops (including micro ops) Simulated (Count)
system.cpu.commitStats0.cpi                 84.665529                       # CPI: cycles per instruction (thread level) ((Cycle/Count))
system.cpu.commitStats0.ipc                  0.011811                       # IPC: instructions per cycle (thread level) ((Count/Cycle))
system.cpu.commitStats0.numMemRefs                  0                       # Number of memory references committed (Count)
system.cpu.commitStats0.numFpInsts                  0                       # Number of float instructions (Count)
system.cpu.commitStats0.numIntInsts         434280317                       # Number of integer instructions (Count)
system.cpu.commitStats0.numLoadInsts        155903330                       # Number of load instructions (Count)
system.cpu.commitStats0.numStoreInsts        18611604                       # Number of store instructions (Count)
system.cpu.commitStats0.numVecInsts                 0                       # Number of vector instructions (Count)
system.cpu.commitStats0.committedInstType::No_OpClass           11      0.00%      0.00% # Class of committed instruction. (Count)
system.cpu.commitStats0.committedInstType::IntAlu    213854597     49.24%     49.24% # Class of committed instruction. (Count)
system.cpu.commitStats0.committedInstType::IntMult     45954927     10.58%     59.82% # Class of committed instruction. (Count)
system.cpu.commitStats0.committedInstType::IntDiv            0      0.00%     59.82% # Class of committed instruction. (Count)
system.cpu.commitStats0.committedInstType::FloatAdd            0      0.00%     59.82% # Class of committed instruction. (Count)
system.cpu.commitStats0.committedInstType::FloatCmp            0      0.00%     59.82% # Class of committed instruction. (Count)
system.cpu.commitStats0.committedInstType::FloatCvt            0      0.00%     59.82% # Class of committed instruction. (Count)
system.cpu.commitStats0.committedInstType::FloatMult            0      0.00%     59.82% # Class of committed instruction. (Count)
system.cpu.commitStats0.committedInstType::FloatMultAcc            0      0.00%     59.82% # Class of committed instruction. (Count)
system.cpu.commitStats0.committedInstType::FloatDiv            0      0.00%     59.82% # Class of committed instruction. (Count)
system.cpu.commitStats0.committedInstType::FloatMisc            0      0.00%     59.82% # Class of committed instruction. (Count)
system.cpu.commitStats0.committedInstType::FloatSqrt            0      0.00%     59.82% # Class of committed instruction. (Count)
system.cpu.commitStats0.committedInstType::SimdAdd            0      0.00%     59.82% # Class of committed instruction. (Count)
system.cpu.commitStats0.committedInstType::SimdAddAcc            0      0.00%     59.82% # Class of committed instruction. (Count)
system.cpu.commitStats0.committedInstType::SimdAlu            0      0.00%     59.82% # Class of committed instruction. (Count)
system.cpu.commitStats0.committedInstType::SimdCmp            0      0.00%     59.82% # Class of committed instruction. (Count)
system.cpu.commitStats0.committedInstType::SimdCvt            0      0.00%     59.82% # Class of committed instruction. (Count)
system.cpu.commitStats0.committedInstType::SimdMisc            0      0.00%     59.82% # Class of committed instruction. (Count)
system.cpu.commitStats0.committedInstType::SimdMult            0      0.00%     59.82% # Class of committed instruction. (Count)
system.cpu.commitStats0.committedInstType::SimdMultAcc            0      0.00%     59.82% # Class of committed instruction. (Count)
system.cpu.commitStats0.committedInstType::SimdMatMultAcc            0      0.00%     59.82% # Class of committed instruction. (Count)
system.cpu.commitStats0.committedInstType::SimdShift            0      0.00%     59.82% # Class of committed instruction. (Count)
system.cpu.commitStats0.committedInstType::SimdShiftAcc            0      0.00%     59.82% # Class of committed instruction. (Count)
system.cpu.commitStats0.committedInstType::SimdDiv            0      0.00%     59.82% # Class of committed instruction. (Count)
system.cpu.commitStats0.committedInstType::SimdSqrt            0      0.00%     59.82% # Class of committed instruction. (Count)
system.cpu.commitStats0.committedInstType::SimdFloatAdd            0      0.00%     59.82% # Class of committed instruction. (Count)
system.cpu.commitStats0.committedInstType::SimdFloatAlu            0      0.00%     59.82% # Class of committed instruction. (Count)
system.cpu.commitStats0.committedInstType::SimdFloatCmp            0      0.00%     59.82% # Class of committed instruction. (Count)
system.cpu.commitStats0.committedInstType::SimdFloatCvt            0      0.00%     59.82% # Class of committed instruction. (Count)
system.cpu.commitStats0.committedInstType::SimdFloatDiv            0      0.00%     59.82% # Class of committed instruction. (Count)
system.cpu.commitStats0.committedInstType::SimdFloatMisc            0      0.00%     59.82% # Class of committed instruction. (Count)
system.cpu.commitStats0.committedInstType::SimdFloatMult            0      0.00%     59.82% # Class of committed instruction. (Count)
system.cpu.commitStats0.committedInstType::SimdFloatMultAcc            0      0.00%     59.82% # Class of committed instruction. (Count)
system.cpu.commitStats0.committedInstType::SimdFloatMatMultAcc            0      0.00%     59.82% # Class of committed instruction. (Count)
system.cpu.commitStats0.committedInstType::SimdFloatSqrt            0      0.00%     59.82% # Class of committed instruction. (Count)
system.cpu.commitStats0.committedInstType::SimdReduceAdd            0      0.00%     59.82% # Class of committed instruction. (Count)
system.cpu.commitStats0.committedInstType::SimdReduceAlu            0      0.00%     59.82% # Class of committed instruction. (Count)
system.cpu.commitStats0.committedInstType::SimdReduceCmp            0      0.00%     59.82% # Class of committed instruction. (Count)
system.cpu.commitStats0.committedInstType::SimdFloatReduceAdd            0      0.00%     59.82% # Class of committed instruction. (Count)
system.cpu.commitStats0.committedInstType::SimdFloatReduceCmp            0      0.00%     59.82% # Class of committed instruction. (Count)
system.cpu.commitStats0.committedInstType::SimdAes            0      0.00%     59.82% # Class of committed instruction. (Count)
system.cpu.commitStats0.committedInstType::SimdAesMix            0      0.00%     59.82% # Class of committed instruction. (Count)
system.cpu.commitStats0.committedInstType::SimdSha1Hash            0      0.00%     59.82% # Class of committed instruction. (Count)
system.cpu.commitStats0.committedInstType::SimdSha1Hash2            0      0.00%     59.82% # Class of committed instruction. (Count)
system.cpu.commitStats0.committedInstType::SimdSha256Hash            0      0.00%     59.82% # Class of committed instruction. (Count)
system.cpu.commitStats0.committedInstType::SimdSha256Hash2            0      0.00%     59.82% # Class of committed instruction. (Count)
system.cpu.commitStats0.committedInstType::SimdShaSigma2            0      0.00%     59.82% # Class of committed instruction. (Count)
system.cpu.commitStats0.committedInstType::SimdShaSigma3            0      0.00%     59.82% # Class of committed instruction. (Count)
system.cpu.commitStats0.committedInstType::SimdPredAlu            0      0.00%     59.82% # Class of committed instruction. (Count)
system.cpu.commitStats0.committedInstType::Matrix            0      0.00%     59.82% # Class of committed instruction. (Count)
system.cpu.commitStats0.committedInstType::MatrixMov            0      0.00%     59.82% # Class of committed instruction. (Count)
system.cpu.commitStats0.committedInstType::MatrixOP            0      0.00%     59.82% # Class of committed instruction. (Count)
system.cpu.commitStats0.committedInstType::MemRead    155903330     35.90%     95.71% # Class of committed instruction. (Count)
system.cpu.commitStats0.committedInstType::MemWrite     18611604      4.29%    100.00% # Class of committed instruction. (Count)
system.cpu.commitStats0.committedInstType::FloatMemRead            0      0.00%    100.00% # Class of committed instruction. (Count)
system.cpu.commitStats0.committedInstType::FloatMemWrite            0      0.00%    100.00% # Class of committed instruction. (Count)
system.cpu.commitStats0.committedInstType::IprAccess            0      0.00%    100.00% # Class of committed instruction. (Count)
system.cpu.commitStats0.committedInstType::InstPrefetch            0      0.00%    100.00% # Class of committed instruction. (Count)
system.cpu.commitStats0.committedInstType::SimdUnitStrideLoad            0      0.00%    100.00% # Class of committed instruction. (Count)
system.cpu.commitStats0.committedInstType::SimdUnitStrideStore            0      0.00%    100.00% # Class of committed instruction. (Count)
system.cpu.commitStats0.committedInstType::SimdUnitStrideMaskLoad            0      0.00%    100.00% # Class of committed instruction. (Count)
system.cpu.commitStats0.committedInstType::SimdUnitStrideMaskStore            0      0.00%    100.00% # Class of committed instruction. (Count)
system.cpu.commitStats0.committedInstType::SimdStridedLoad            0      0.00%    100.00% # Class of committed instruction. (Count)
system.cpu.commitStats0.committedInstType::SimdStridedStore            0      0.00%    100.00% # Class of committed instruction. (Count)
system.cpu.commitStats0.committedInstType::SimdIndexedLoad            0      0.00%    100.00% # Class of committed instruction. (Count)
system.cpu.commitStats0.committedInstType::SimdIndexedStore            0      0.00%    100.00% # Class of committed instruction. (Count)
system.cpu.commitStats0.committedInstType::SimdWholeRegisterLoad            0      0.00%    100.00% # Class of committed instruction. (Count)
system.cpu.commitStats0.committedInstType::SimdWholeRegisterStore            0      0.00%    100.00% # Class of committed instruction. (Count)
system.cpu.commitStats0.committedInstType::SimdUnitStrideFaultOnlyFirstLoad            0      0.00%    100.00% # Class of committed instruction. (Count)
system.cpu.commitStats0.committedInstType::SimdUnitStrideSegmentedLoad            0      0.00%    100.00% # Class of committed instruction. (Count)
system.cpu.commitStats0.committedInstType::SimdUnitStrideSegmentedStore            0      0.00%    100.00% # Class of committed instruction. (Count)
system.cpu.commitStats0.committedInstType::SimdExt            0      0.00%    100.00% # Class of committed instruction. (Count)
system.cpu.commitStats0.committedInstType::SimdFloatExt            0      0.00%    100.00% # Class of committed instruction. (Count)
system.cpu.commitStats0.committedInstType::SimdConfig            0      0.00%    100.00% # Class of committed instruction. (Count)
system.cpu.commitStats0.committedInstType::total    434324469                       # Class of committed instruction. (Count)
system.cpu.commitStats0.committedControl::IsControl      9482693                       # Class of control type instructions committed (Count)
system.cpu.commitStats0.committedControl::IsDirectControl      9394408                       # Class of control type instructions committed (Count)
system.cpu.commitStats0.committedControl::IsIndirectControl        88285                       # Class of control type instructions committed (Count)
system.cpu.commitStats0.committedControl::IsCondControl      9262011                       # Class of control type instructions committed (Count)
system.cpu.commitStats0.committedControl::IsUncondControl       220682                       # Class of control type instructions committed (Count)
system.cpu.commitStats0.committedControl::IsCall        88268                       # Class of control type instructions committed (Count)
system.cpu.commitStats0.committedControl::IsReturn        88267                       # Class of control type instructions committed (Count)
system.cpu.exec_context.thread_0.numMatAluAccesses            0                       # Number of matrix alu accesses (Count)
system.cpu.exec_context.thread_0.numCallsReturns       176535                       # Number of times a function call or return occured (Count)
system.cpu.exec_context.thread_0.numMatInsts            0                       # Number of matrix instructions (Count)
system.cpu.exec_context.thread_0.numIdleCycles     0.001000                       # Number of idle cycles (Cycle)
system.cpu.exec_context.thread_0.numBusyCycles 36772310835.999001                       # Number of busy cycles (Cycle)
system.cpu.exec_context.thread_0.notIdleFraction     1.000000                       # Percentage of non-idle cycles (Ratio)
system.cpu.exec_context.thread_0.idleFraction     0.000000                       # Percentage of idle cycles (Ratio)
system.cpu.executeStats0.numInsts                   0                       # Number of executed instructions (Count)
system.cpu.executeStats0.numNop                     0                       # Number of nop insts executed (Count)
system.cpu.executeStats0.numBranches                0                       # Number of branches executed (Count)
system.cpu.executeStats0.numLoadInsts               0                       # Number of load instructions executed (Count)
system.cpu.executeStats0.numStoreInsts      174514934                       # Number of stores executed (Count)
system.cpu.executeStats0.instRate                   0                       # Inst execution rate ((Count/Cycle))
system.cpu.executeStats0.numFpRegWrites             0                       # Number of times the floating registers were written (Count)
system.cpu.executeStats0.numIntAluAccesses    434280317                       # Number of integer alu accesses (Count)
system.cpu.executeStats0.numIntRegReads     544537725                       # Number of times the integer registers were read (Count)
system.cpu.executeStats0.numIntRegWrites    406318428                       # Number of times the integer registers were written (Count)
system.cpu.executeStats0.numMemRefs         174514934                       # Number of memory refs (Count)
system.cpu.executeStats0.numMiscRegReads           11                       # Number of times the Misc registers were read (Count)
system.cpu.executeStats0.numVecAluAccesses            0                       # Number of vector alu accesses (Count)
system.cpu.executeStats0.numDiscardedOps            0                       # Number of ops (including micro ops) which were discarded before commit (Count)
system.cpu.fetchStats0.numInsts             434324469                       # Number of instructions fetched (thread level) (Count)
system.cpu.fetchStats0.numOps               434324469                       # Number of ops (including micro ops) fetched (thread level) (Count)
system.cpu.fetchStats0.fetchRate             0.011811                       # Number of inst fetches per cycle ((Count/Cycle))
system.cpu.fetchStats0.numBranches            9482693                       # Number of branches fetched (Count)
system.cpu.fetchStats0.branchRate            0.000258                       # Number of branch fetches per cycle (Ratio)
system.cpu.fetchStats0.numFetchSuspends             0                       # Number of times Execute suspended instruction fetching (Count)
system.cpu.mmu.dtb.readHits                         0                       # read hits (Count)
system.cpu.mmu.dtb.readMisses                       0                       # read misses (Count)
system.cpu.mmu.dtb.readAccesses                     0                       # read accesses (Count)
system.cpu.mmu.dtb.writeHits                        0                       # write hits (Count)
system.cpu.mmu.dtb.writeMisses                      0                       # write misses (Count)
system.cpu.mmu.dtb.writeAccesses                    0                       # write accesses (Count)
system.cpu.mmu.dtb.hits                             0                       # Total TLB (read and write) hits (Count)
system.cpu.mmu.dtb.misses                           0                       # Total TLB (read and write) misses (Count)
system.cpu.mmu.dtb.accesses                         0                       # Total TLB (read and write) accesses (Count)
system.cpu.mmu.dtb.walker.num_4kb_walks             0                       # Completed page walks with 4KB pages (Count)
system.cpu.mmu.dtb.walker.num_2mb_walks             0                       # Completed page walks with 2MB pages (Count)
system.cpu.mmu.dtb.walker.power_state.pwrStateResidencyTicks::UNDEFINED 36772310836000                       # Cumulative time (in ticks) in various power states (Tick)
system.cpu.mmu.itb.readHits                         0                       # read hits (Count)
system.cpu.mmu.itb.readMisses                       0                       # read misses (Count)
system.cpu.mmu.itb.readAccesses                     0                       # read accesses (Count)
system.cpu.mmu.itb.writeHits                        0                       # write hits (Count)
system.cpu.mmu.itb.writeMisses                      0                       # write misses (Count)
system.cpu.mmu.itb.writeAccesses                    0                       # write accesses (Count)
system.cpu.mmu.itb.hits                             0                       # Total TLB (read and write) hits (Count)
system.cpu.mmu.itb.misses                           0                       # Total TLB (read and write) misses (Count)
system.cpu.mmu.itb.accesses                         0                       # Total TLB (read and write) accesses (Count)
system.cpu.mmu.itb.walker.num_4kb_walks             0                       # Completed page walks with 4KB pages (Count)
system.cpu.mmu.itb.walker.num_2mb_walks             0                       # Completed page walks with 2MB pages (Count)
system.cpu.mmu.itb.walker.power_state.pwrStateResidencyTicks::UNDEFINED 36772310836000                       # Cumulative time (in ticks) in various power states (Tick)
system.cpu.power_state.pwrStateResidencyTicks::ON 36772310836000                       # Cumulative time (in ticks) in various power states (Tick)
system.cpu.thread_0.numInsts                        0                       # Number of Instructions committed (Count)
system.cpu.thread_0.numOps                          0                       # Number of Ops committed (Count)
system.cpu.thread_0.numMemRefs                      0                       # Number of Memory References (Count)
system.cpu.workload.numSyscalls                    11                       # Number of system calls (Count)
system.mem_ctrl.avgPriority_cpu.inst::samples 563811287.00                       # Average QoS priority value for accepted requests (Count)
system.mem_ctrl.avgPriority_cpu.data::samples 118604423.00                       # Average QoS priority value for accepted requests (Count)
system.mem_ctrl.priorityMinLatency       0.000000018750                       # per QoS priority minimum request to response latency (Second)
system.mem_ctrl.priorityMaxLatency       20.057667210500                       # per QoS priority maximum request to response latency (Second)
system.mem_ctrl.numReadWriteTurnArounds           583                       # Number of turnarounds from READ to WRITE (Count)
system.mem_ctrl.numWriteReadTurnArounds           583                       # Number of turnarounds from WRITE to READ (Count)
system.mem_ctrl.numStayReadState           1392869164                       # Number of times bus staying in READ state (Count)
system.mem_ctrl.numStayWriteState                8756                       # Number of times bus staying in WRITE state (Count)
system.mem_ctrl.readReqs                    719714617                       # Number of read requests accepted (Count)
system.mem_ctrl.writeReqs                    18611600                       # Number of write requests accepted (Count)
system.mem_ctrl.readBursts                  719714617                       # Number of controller read bursts, including those serviced by the write queue (Count)
system.mem_ctrl.writeBursts                  18611600                       # Number of controller write bursts, including those merged in the write queue (Count)
system.mem_ctrl.servicedByWrQ                37308263                       # Number of controller read bursts serviced by the write queue (Count)
system.mem_ctrl.mergedWrBursts               18602244                       # Number of controller write bursts merged with an existing one (Count)
system.mem_ctrl.neitherReadNorWriteReqs             0                       # Number of requests that are neither read nor write (Count)
system.mem_ctrl.avgRdQLen                        1.00                       # Average read queue length when enqueuing ((Count/Tick))
system.mem_ctrl.avgWrQLen                       25.20                       # Average write queue length when enqueuing ((Count/Tick))
system.mem_ctrl.numRdRetry                          0                       # Number of times read queue was full causing retry (Count)
system.mem_ctrl.numWrRetry                          0                       # Number of times write queue was full causing retry (Count)
system.mem_ctrl.readPktSize::0                     44                       # Read request sizes (log2) (Count)
system.mem_ctrl.readPktSize::1                     36                       # Read request sizes (log2) (Count)
system.mem_ctrl.readPktSize::2              682976863                       # Read request sizes (log2) (Count)
system.mem_ctrl.readPktSize::3               36737674                       # Read request sizes (log2) (Count)
system.mem_ctrl.readPktSize::4                      0                       # Read request sizes (log2) (Count)
system.mem_ctrl.readPktSize::5                      0                       # Read request sizes (log2) (Count)
system.mem_ctrl.readPktSize::6                      0                       # Read request sizes (log2) (Count)
system.mem_ctrl.writePktSize::0                    74                       # Write request sizes (log2) (Count)
system.mem_ctrl.writePktSize::1                    22                       # Write request sizes (log2) (Count)
system.mem_ctrl.writePktSize::2              18522879                       # Write request sizes (log2) (Count)
system.mem_ctrl.writePktSize::3                 88625                       # Write request sizes (log2) (Count)
system.mem_ctrl.writePktSize::4                     0                       # Write request sizes (log2) (Count)
system.mem_ctrl.writePktSize::5                     0                       # Write request sizes (log2) (Count)
system.mem_ctrl.writePktSize::6                     0                       # Write request sizes (log2) (Count)
system.mem_ctrl.rdQLenPdf::0                682406354                       # What read queue length does an incoming req see (Count)
system.mem_ctrl.rdQLenPdf::1                        0                       # What read queue length does an incoming req see (Count)
system.mem_ctrl.rdQLenPdf::2                        0                       # What read queue length does an incoming req see (Count)
system.mem_ctrl.rdQLenPdf::3                        0                       # What read queue length does an incoming req see (Count)
system.mem_ctrl.rdQLenPdf::4                        0                       # What read queue length does an incoming req see (Count)
system.mem_ctrl.rdQLenPdf::5                        0                       # What read queue length does an incoming req see (Count)
system.mem_ctrl.rdQLenPdf::6                        0                       # What read queue length does an incoming req see (Count)
system.mem_ctrl.rdQLenPdf::7                        0                       # What read queue length does an incoming req see (Count)
system.mem_ctrl.rdQLenPdf::8                        0                       # What read queue length does an incoming req see (Count)
system.mem_ctrl.rdQLenPdf::9                        0                       # What read queue length does an incoming req see (Count)
system.mem_ctrl.rdQLenPdf::10                       0                       # What read queue length does an incoming req see (Count)
system.mem_ctrl.rdQLenPdf::11                       0                       # What read queue length does an incoming req see (Count)
system.mem_ctrl.rdQLenPdf::12                       0                       # What read queue length does an incoming req see (Count)
system.mem_ctrl.rdQLenPdf::13                       0                       # What read queue length does an incoming req see (Count)
system.mem_ctrl.rdQLenPdf::14                       0                       # What read queue length does an incoming req see (Count)
system.mem_ctrl.rdQLenPdf::15                       0                       # What read queue length does an incoming req see (Count)
system.mem_ctrl.rdQLenPdf::16                       0                       # What read queue length does an incoming req see (Count)
system.mem_ctrl.rdQLenPdf::17                       0                       # What read queue length does an incoming req see (Count)
system.mem_ctrl.rdQLenPdf::18                       0                       # What read queue length does an incoming req see (Count)
system.mem_ctrl.rdQLenPdf::19                       0                       # What read queue length does an incoming req see (Count)
system.mem_ctrl.rdQLenPdf::20                       0                       # What read queue length does an incoming req see (Count)
system.mem_ctrl.rdQLenPdf::21                       0                       # What read queue length does an incoming req see (Count)
system.mem_ctrl.rdQLenPdf::22                       0                       # What read queue length does an incoming req see (Count)
system.mem_ctrl.rdQLenPdf::23                       0                       # What read queue length does an incoming req see (Count)
system.mem_ctrl.rdQLenPdf::24                       0                       # What read queue length does an incoming req see (Count)
system.mem_ctrl.rdQLenPdf::25                       0                       # What read queue length does an incoming req see (Count)
system.mem_ctrl.rdQLenPdf::26                       0                       # What read queue length does an incoming req see (Count)
system.mem_ctrl.rdQLenPdf::27                       0                       # What read queue length does an incoming req see (Count)
system.mem_ctrl.rdQLenPdf::28                       0                       # What read queue length does an incoming req see (Count)
system.mem_ctrl.rdQLenPdf::29                       0                       # What read queue length does an incoming req see (Count)
system.mem_ctrl.rdQLenPdf::30                       0                       # What read queue length does an incoming req see (Count)
system.mem_ctrl.rdQLenPdf::31                       0                       # What read queue length does an incoming req see (Count)
system.mem_ctrl.wrQLenPdf::0                        1                       # What write queue length does an incoming req see (Count)
system.mem_ctrl.wrQLenPdf::1                        1                       # What write queue length does an incoming req see (Count)
system.mem_ctrl.wrQLenPdf::2                        1                       # What write queue length does an incoming req see (Count)
system.mem_ctrl.wrQLenPdf::3                        1                       # What write queue length does an incoming req see (Count)
system.mem_ctrl.wrQLenPdf::4                        1                       # What write queue length does an incoming req see (Count)
system.mem_ctrl.wrQLenPdf::5                        1                       # What write queue length does an incoming req see (Count)
system.mem_ctrl.wrQLenPdf::6                        1                       # What write queue length does an incoming req see (Count)
system.mem_ctrl.wrQLenPdf::7                        1                       # What write queue length does an incoming req see (Count)
system.mem_ctrl.wrQLenPdf::8                        1                       # What write queue length does an incoming req see (Count)
system.mem_ctrl.wrQLenPdf::9                        1                       # What write queue length does an incoming req see (Count)
system.mem_ctrl.wrQLenPdf::10                       1                       # What write queue length does an incoming req see (Count)
system.mem_ctrl.wrQLenPdf::11                       1                       # What write queue length does an incoming req see (Count)
system.mem_ctrl.wrQLenPdf::12                       1                       # What write queue length does an incoming req see (Count)
system.mem_ctrl.wrQLenPdf::13                       1                       # What write queue length does an incoming req see (Count)
system.mem_ctrl.wrQLenPdf::14                       1                       # What write queue length does an incoming req see (Count)
system.mem_ctrl.wrQLenPdf::15                       2                       # What write queue length does an incoming req see (Count)
system.mem_ctrl.wrQLenPdf::16                       2                       # What write queue length does an incoming req see (Count)
system.mem_ctrl.wrQLenPdf::17                     584                       # What write queue length does an incoming req see (Count)
system.mem_ctrl.wrQLenPdf::18                     584                       # What write queue length does an incoming req see (Count)
system.mem_ctrl.wrQLenPdf::19                     584                       # What write queue length does an incoming req see (Count)
system.mem_ctrl.wrQLenPdf::20                     584                       # What write queue length does an incoming req see (Count)
system.mem_ctrl.wrQLenPdf::21                     584                       # What write queue length does an incoming req see (Count)
system.mem_ctrl.wrQLenPdf::22                     584                       # What write queue length does an incoming req see (Count)
system.mem_ctrl.wrQLenPdf::23                     584                       # What write queue length does an incoming req see (Count)
system.mem_ctrl.wrQLenPdf::24                     584                       # What write queue length does an incoming req see (Count)
system.mem_ctrl.wrQLenPdf::25                     584                       # What write queue length does an incoming req see (Count)
system.mem_ctrl.wrQLenPdf::26                     583                       # What write queue length does an incoming req see (Count)
system.mem_ctrl.wrQLenPdf::27                     583                       # What write queue length does an incoming req see (Count)
system.mem_ctrl.wrQLenPdf::28                     583                       # What write queue length does an incoming req see (Count)
system.mem_ctrl.wrQLenPdf::29                     583                       # What write queue length does an incoming req see (Count)
system.mem_ctrl.wrQLenPdf::30                     583                       # What write queue length does an incoming req see (Count)
system.mem_ctrl.wrQLenPdf::31                     583                       # What write queue length does an incoming req see (Count)
system.mem_ctrl.wrQLenPdf::32                     583                       # What write queue length does an incoming req see (Count)
system.mem_ctrl.wrQLenPdf::33                       0                       # What write queue length does an incoming req see (Count)
system.mem_ctrl.wrQLenPdf::34                       0                       # What write queue length does an incoming req see (Count)
system.mem_ctrl.wrQLenPdf::35                       0                       # What write queue length does an incoming req see (Count)
system.mem_ctrl.wrQLenPdf::36                       0                       # What write queue length does an incoming req see (Count)
system.mem_ctrl.wrQLenPdf::37                       0                       # What write queue length does an incoming req see (Count)
system.mem_ctrl.wrQLenPdf::38                       0                       # What write queue length does an incoming req see (Count)
system.mem_ctrl.wrQLenPdf::39                       0                       # What write queue length does an incoming req see (Count)
system.mem_ctrl.wrQLenPdf::40                       0                       # What write queue length does an incoming req see (Count)
system.mem_ctrl.wrQLenPdf::41                       0                       # What write queue length does an incoming req see (Count)
system.mem_ctrl.wrQLenPdf::42                       0                       # What write queue length does an incoming req see (Count)
system.mem_ctrl.wrQLenPdf::43                       0                       # What write queue length does an incoming req see (Count)
system.mem_ctrl.wrQLenPdf::44                       0                       # What write queue length does an incoming req see (Count)
system.mem_ctrl.wrQLenPdf::45                       0                       # What write queue length does an incoming req see (Count)
system.mem_ctrl.wrQLenPdf::46                       0                       # What write queue length does an incoming req see (Count)
system.mem_ctrl.wrQLenPdf::47                       0                       # What write queue length does an incoming req see (Count)
system.mem_ctrl.wrQLenPdf::48                       0                       # What write queue length does an incoming req see (Count)
system.mem_ctrl.wrQLenPdf::49                       0                       # What write queue length does an incoming req see (Count)
system.mem_ctrl.wrQLenPdf::50                       0                       # What write queue length does an incoming req see (Count)
system.mem_ctrl.wrQLenPdf::51                       0                       # What write queue length does an incoming req see (Count)
system.mem_ctrl.wrQLenPdf::52                       0                       # What write queue length does an incoming req see (Count)
system.mem_ctrl.wrQLenPdf::53                       0                       # What write queue length does an incoming req see (Count)
system.mem_ctrl.wrQLenPdf::54                       0                       # What write queue length does an incoming req see (Count)
system.mem_ctrl.wrQLenPdf::55                       0                       # What write queue length does an incoming req see (Count)
system.mem_ctrl.wrQLenPdf::56                       0                       # What write queue length does an incoming req see (Count)
system.mem_ctrl.wrQLenPdf::57                       0                       # What write queue length does an incoming req see (Count)
system.mem_ctrl.wrQLenPdf::58                       0                       # What write queue length does an incoming req see (Count)
system.mem_ctrl.wrQLenPdf::59                       0                       # What write queue length does an incoming req see (Count)
system.mem_ctrl.wrQLenPdf::60                       0                       # What write queue length does an incoming req see (Count)
system.mem_ctrl.wrQLenPdf::61                       0                       # What write queue length does an incoming req see (Count)
system.mem_ctrl.wrQLenPdf::62                       0                       # What write queue length does an incoming req see (Count)
system.mem_ctrl.wrQLenPdf::63                       0                       # What write queue length does an incoming req see (Count)
system.mem_ctrl.rdPerTurnAround::samples          583                       # Reads before turning the bus around for writes (Count)
system.mem_ctrl.rdPerTurnAround::mean    1170507.164666                       # Reads before turning the bus around for writes (Count)
system.mem_ctrl.rdPerTurnAround::gmean   84703.631374                       # Reads before turning the bus around for writes (Count)
system.mem_ctrl.rdPerTurnAround::stdev   1687090.666944                       # Reads before turning the bus around for writes (Count)
system.mem_ctrl.rdPerTurnAround::0-131071          396     67.92%     67.92% # Reads before turning the bus around for writes (Count)
system.mem_ctrl.rdPerTurnAround::1.70394e+06-1.83501e+06            1      0.17%     68.10% # Reads before turning the bus around for writes (Count)
system.mem_ctrl.rdPerTurnAround::3.40787e+06-3.53894e+06           63     10.81%     78.90% # Reads before turning the bus around for writes (Count)
system.mem_ctrl.rdPerTurnAround::3.67002e+06-3.80109e+06          114     19.55%     98.46% # Reads before turning the bus around for writes (Count)
system.mem_ctrl.rdPerTurnAround::3.93216e+06-4.06323e+06            9      1.54%    100.00% # Reads before turning the bus around for writes (Count)
system.mem_ctrl.rdPerTurnAround::total            583                       # Reads before turning the bus around for writes (Count)
system.mem_ctrl.wrPerTurnAround::samples          583                       # Writes before turning the bus around for reads (Count)
system.mem_ctrl.wrPerTurnAround::mean       16.003431                       # Writes before turning the bus around for reads (Count)
system.mem_ctrl.wrPerTurnAround::gmean      16.003233                       # Writes before turning the bus around for reads (Count)
system.mem_ctrl.wrPerTurnAround::stdev       0.082832                       # Writes before turning the bus around for reads (Count)
system.mem_ctrl.wrPerTurnAround::16               582     99.83%     99.83% # Writes before turning the bus around for reads (Count)
system.mem_ctrl.wrPerTurnAround::18                 1      0.17%    100.00% # Writes before turning the bus around for reads (Count)
system.mem_ctrl.wrPerTurnAround::total            583                       # Writes before turning the bus around for reads (Count)
system.mem_ctrl.bytesReadWrQ               2387728832                       # Total number of bytes read from write queue (Byte)
system.mem_ctrl.bytesReadSys               3025808960                       # Total read bytes from the system interface side (Byte)
system.mem_ctrl.bytesWrittenSys              74800634                       # Total written bytes from the system interface side (Byte)
system.mem_ctrl.avgRdBWSys               82284982.67336902                       # Average system read bandwidth in Byte/s ((Byte/Second))
system.mem_ctrl.avgWrBWSys               2034156.46989393                       # Average system write bandwidth in Byte/s ((Byte/Second))
system.mem_ctrl.totGap                   36772310710000                       # Total gap between requests (Tick)
system.mem_ctrl.avgGap                       49804.96                       # Average gap between requests ((Tick/Count))
system.mem_ctrl.requestorReadBytes::cpu.inst   2255245148                       # Per-requestor bytes read from memory (Byte)
system.mem_ctrl.requestorReadBytes::cpu.data    620978934                       # Per-requestor bytes read from memory (Byte)
system.mem_ctrl.requestorWriteBytes::cpu.data        38552                       # Per-requestor bytes write to memory (Byte)
system.mem_ctrl.requestorReadRate::cpu.inst 61329981.628245145082                       # Per-requestor bytes read from memory rate ((Byte/Second))
system.mem_ctrl.requestorReadRate::cpu.data 16887133.821137592196                       # Per-requestor bytes read from memory rate ((Byte/Second))
system.mem_ctrl.requestorWriteRate::cpu.data 1048.397534001526                       # Per-requestor bytes write to memory rate ((Byte/Second))
system.mem_ctrl.requestorReadAccesses::cpu.inst    563811287                       # Per-requestor read serviced memory accesses (Count)
system.mem_ctrl.requestorReadAccesses::cpu.data    155903330                       # Per-requestor read serviced memory accesses (Count)
system.mem_ctrl.requestorWriteAccesses::cpu.data     18611600                       # Per-requestor write serviced memory accesses (Count)
system.mem_ctrl.requestorReadTotalLat::cpu.inst 12128532561000                       # Per-requestor read total memory access latency (Tick)
system.mem_ctrl.requestorReadTotalLat::cpu.data 2846487396750                       # Per-requestor read total memory access latency (Tick)
system.mem_ctrl.requestorWriteTotalLat::cpu.data 889708380813000                       # Per-requestor write total memory access latency (Tick)
system.mem_ctrl.requestorReadAvgLat::cpu.inst     21511.69                       # Per-requestor read average memory access latency ((Tick/Count))
system.mem_ctrl.requestorReadAvgLat::cpu.data     18258.03                       # Per-requestor read average memory access latency ((Tick/Count))
system.mem_ctrl.requestorWriteAvgLat::cpu.data  47803970.69                       # Per-requestor write average memory access latency ((Tick/Count))
system.mem_ctrl.dram.bytesRead::cpu.inst   2255245148                       # Number of bytes read from this memory (Byte)
system.mem_ctrl.dram.bytesRead::cpu.data    770563812                       # Number of bytes read from this memory (Byte)
system.mem_ctrl.dram.bytesRead::total      3025808960                       # Number of bytes read from this memory (Byte)
system.mem_ctrl.dram.bytesInstRead::cpu.inst   2255245148                       # Number of instructions bytes read from this memory (Byte)
system.mem_ctrl.dram.bytesInstRead::total   2255245148                       # Number of instructions bytes read from this memory (Byte)
system.mem_ctrl.dram.bytesWritten::cpu.data     74800634                       # Number of bytes written to this memory (Byte)
system.mem_ctrl.dram.bytesWritten::total     74800634                       # Number of bytes written to this memory (Byte)
system.mem_ctrl.dram.numReads::cpu.inst     563811287                       # Number of read requests responded to by this memory (Count)
system.mem_ctrl.dram.numReads::cpu.data     155903330                       # Number of read requests responded to by this memory (Count)
system.mem_ctrl.dram.numReads::total        719714617                       # Number of read requests responded to by this memory (Count)
system.mem_ctrl.dram.numWrites::cpu.data     18611600                       # Number of write requests responded to by this memory (Count)
system.mem_ctrl.dram.numWrites::total        18611600                       # Number of write requests responded to by this memory (Count)
system.mem_ctrl.dram.bwRead::cpu.inst        61329982                       # Total read bandwidth from this memory ((Byte/Second))
system.mem_ctrl.dram.bwRead::cpu.data        20955001                       # Total read bandwidth from this memory ((Byte/Second))
system.mem_ctrl.dram.bwRead::total           82284983                       # Total read bandwidth from this memory ((Byte/Second))
system.mem_ctrl.dram.bwInstRead::cpu.inst     61329982                       # Instruction read bandwidth from this memory ((Byte/Second))
system.mem_ctrl.dram.bwInstRead::total       61329982                       # Instruction read bandwidth from this memory ((Byte/Second))
system.mem_ctrl.dram.bwWrite::cpu.data        2034156                       # Write bandwidth from this memory ((Byte/Second))
system.mem_ctrl.dram.bwWrite::total           2034156                       # Write bandwidth from this memory ((Byte/Second))
system.mem_ctrl.dram.bwTotal::cpu.inst       61329982                       # Total bandwidth to/from this memory ((Byte/Second))
system.mem_ctrl.dram.bwTotal::cpu.data       22989158                       # Total bandwidth to/from this memory ((Byte/Second))
system.mem_ctrl.dram.bwTotal::total          84319139                       # Total bandwidth to/from this memory ((Byte/Second))
system.mem_ctrl.dram.readBursts             682406354                       # Number of DRAM read bursts (Count)
system.mem_ctrl.dram.writeBursts                 9330                       # Number of DRAM write bursts (Count)
system.mem_ctrl.dram.perBankRdBursts::0     565461833                       # Per bank write bursts (Count)
system.mem_ctrl.dram.perBankRdBursts::1       1739460                       # Per bank write bursts (Count)
system.mem_ctrl.dram.perBankRdBursts::2      93566204                       # Per bank write bursts (Count)
system.mem_ctrl.dram.perBankRdBursts::3       1677016                       # Per bank write bursts (Count)
system.mem_ctrl.dram.perBankRdBursts::4       1677852                       # Per bank write bursts (Count)
system.mem_ctrl.dram.perBankRdBursts::5       1677017                       # Per bank write bursts (Count)
system.mem_ctrl.dram.perBankRdBursts::6       1677020                       # Per bank write bursts (Count)
system.mem_ctrl.dram.perBankRdBursts::7       1633335                       # Per bank write bursts (Count)
system.mem_ctrl.dram.perBankRdBursts::8       1677832                       # Per bank write bursts (Count)
system.mem_ctrl.dram.perBankRdBursts::9       1677016                       # Per bank write bursts (Count)
system.mem_ctrl.dram.perBankRdBursts::10      1677016                       # Per bank write bursts (Count)
system.mem_ctrl.dram.perBankRdBursts::11      1677024                       # Per bank write bursts (Count)
system.mem_ctrl.dram.perBankRdBursts::12      1677652                       # Per bank write bursts (Count)
system.mem_ctrl.dram.perBankRdBursts::13      1609518                       # Per bank write bursts (Count)
system.mem_ctrl.dram.perBankRdBursts::14      1650277                       # Per bank write bursts (Count)
system.mem_ctrl.dram.perBankRdBursts::15      1650282                       # Per bank write bursts (Count)
system.mem_ctrl.dram.perBankWrBursts::0           506                       # Per bank write bursts (Count)
system.mem_ctrl.dram.perBankWrBursts::1           828                       # Per bank write bursts (Count)
system.mem_ctrl.dram.perBankWrBursts::2          1172                       # Per bank write bursts (Count)
system.mem_ctrl.dram.perBankWrBursts::3           513                       # Per bank write bursts (Count)
system.mem_ctrl.dram.perBankWrBursts::4           512                       # Per bank write bursts (Count)
system.mem_ctrl.dram.perBankWrBursts::5           518                       # Per bank write bursts (Count)
system.mem_ctrl.dram.perBankWrBursts::6           523                       # Per bank write bursts (Count)
system.mem_ctrl.dram.perBankWrBursts::7           539                       # Per bank write bursts (Count)
system.mem_ctrl.dram.perBankWrBursts::8           519                       # Per bank write bursts (Count)
system.mem_ctrl.dram.perBankWrBursts::9           513                       # Per bank write bursts (Count)
system.mem_ctrl.dram.perBankWrBursts::10          525                       # Per bank write bursts (Count)
system.mem_ctrl.dram.perBankWrBursts::11          532                       # Per bank write bursts (Count)
system.mem_ctrl.dram.perBankWrBursts::12          538                       # Per bank write bursts (Count)
system.mem_ctrl.dram.perBankWrBursts::13          528                       # Per bank write bursts (Count)
system.mem_ctrl.dram.perBankWrBursts::14          525                       # Per bank write bursts (Count)
system.mem_ctrl.dram.perBankWrBursts::15          539                       # Per bank write bursts (Count)
system.mem_ctrl.dram.totQLat             2179900820250                       # Total ticks spent queuing (Tick)
system.mem_ctrl.dram.totBusLat           3412031770000                       # Total ticks spent in databus transfers (Tick)
system.mem_ctrl.dram.totMemAccLat        14975019957750                       # Total ticks spent from burst creation until serviced by the DRAM (Tick)
system.mem_ctrl.dram.avgQLat                  3194.43                       # Average queueing delay per DRAM burst ((Tick/Count))
system.mem_ctrl.dram.avgBusLat                5000.00                       # Average bus latency per DRAM burst ((Tick/Count))
system.mem_ctrl.dram.avgMemAccLat            21944.43                       # Average memory access latency per DRAM burst ((Tick/Count))
system.mem_ctrl.dram.readRowHits            617498712                       # Number of row buffer hits during reads (Count)
system.mem_ctrl.dram.writeRowHits                8595                       # Number of row buffer hits during writes (Count)
system.mem_ctrl.dram.readRowHitRate             90.49                       # Row buffer hit rate for reads (Ratio)
system.mem_ctrl.dram.writeRowHitRate            92.12                       # Row buffer hit rate for writes (Ratio)
system.mem_ctrl.dram.bytesPerActivate::samples     64908374                       # Bytes accessed per row activation (Byte)
system.mem_ctrl.dram.bytesPerActivate::mean   672.865458                       # Bytes accessed per row activation (Byte)
system.mem_ctrl.dram.bytesPerActivate::gmean   461.380936                       # Bytes accessed per row activation (Byte)
system.mem_ctrl.dram.bytesPerActivate::stdev   414.550103                       # Bytes accessed per row activation (Byte)
system.mem_ctrl.dram.bytesPerActivate::0-127      6653879     10.25%     10.25% # Bytes accessed per row activation (Byte)
system.mem_ctrl.dram.bytesPerActivate::128-255     12341031     19.01%     29.26% # Bytes accessed per row activation (Byte)
system.mem_ctrl.dram.bytesPerActivate::256-383      2876869      4.43%     33.70% # Bytes accessed per row activation (Byte)
system.mem_ctrl.dram.bytesPerActivate::384-511      2312006      3.56%     37.26% # Bytes accessed per row activation (Byte)
system.mem_ctrl.dram.bytesPerActivate::512-639      2449229      3.77%     41.03% # Bytes accessed per row activation (Byte)
system.mem_ctrl.dram.bytesPerActivate::640-767      1162600      1.79%     42.82% # Bytes accessed per row activation (Byte)
system.mem_ctrl.dram.bytesPerActivate::768-895      1029110      1.59%     44.41% # Bytes accessed per row activation (Byte)
system.mem_ctrl.dram.bytesPerActivate::896-1023       194479      0.30%     44.71% # Bytes accessed per row activation (Byte)
system.mem_ctrl.dram.bytesPerActivate::1024-1151     35889171     55.29%    100.00% # Bytes accessed per row activation (Byte)
system.mem_ctrl.dram.bytesPerActivate::total     64908374                       # Bytes accessed per row activation (Byte)
system.mem_ctrl.dram.dramBytesRead        43674006656                       # Total bytes read (Byte)
system.mem_ctrl.dram.dramBytesWritten          597120                       # Total bytes written (Byte)
system.mem_ctrl.dram.avgRdBW              1187.687302                       # Average DRAM read bandwidth in MiBytes/s ((Byte/Second))
system.mem_ctrl.dram.avgWrBW                 0.016238                       # Average DRAM write bandwidth in MiBytes/s ((Byte/Second))
system.mem_ctrl.dram.peakBW                  12800.00                       # Theoretical peak bandwidth in MiByte/s ((Byte/Second))
system.mem_ctrl.dram.busUtil                     9.28                       # Data bus utilization in percentage (Ratio)
system.mem_ctrl.dram.busUtilRead                 9.28                       # Data bus utilization in percentage for reads (Ratio)
system.mem_ctrl.dram.busUtilWrite                0.00                       # Data bus utilization in percentage for writes (Ratio)
system.mem_ctrl.dram.pageHitRate                90.49                       # Row buffer hit rate, read and write combined (Ratio)
system.mem_ctrl.dram.power_state.pwrStateResidencyTicks::UNDEFINED 36772310836000                       # Cumulative time (in ticks) in various power states (Tick)
system.mem_ctrl.dram.rank0.actEnergy     409178041860                       # Energy for activate commands per rank (pJ) (Joule)
system.mem_ctrl.dram.rank0.preEnergy     217483275570                       # Energy for precharge commands per rank (pJ) (Joule)
system.mem_ctrl.dram.rank0.readEnergy    4777443522180                       # Energy for read commands per rank (pJ) (Joule)
system.mem_ctrl.dram.rank0.writeEnergy       26679420                       # Energy for write commands per rank (pJ) (Joule)
system.mem_ctrl.dram.rank0.refreshEnergy 2902775079360.000488                       # Energy for refresh commands per rank (pJ) (Joule)
system.mem_ctrl.dram.rank0.actBackEnergy 16696554990660                       # Energy for active background per rank (pJ) (Joule)
system.mem_ctrl.dram.rank0.preBackEnergy  60310526880                       # Energy for precharge background per rank (pJ) (Joule)
system.mem_ctrl.dram.rank0.actPowerDownEnergy            0                       # Energy for active power-down per rank (pJ) (Joule)
system.mem_ctrl.dram.rank0.prePowerDownEnergy            0                       # Energy for precharge power-down per rank (pJ) (Joule)
system.mem_ctrl.dram.rank0.selfRefreshEnergy            0                       # Energy for self refresh per rank (pJ) (Joule)
system.mem_ctrl.dram.rank0.totalEnergy   25063772115930                       # Total energy per rank (pJ) (Joule)
system.mem_ctrl.dram.rank0.averagePower    681.593611                       # Core power per rank (mW) (Watt)
system.mem_ctrl.dram.rank0.totalIdleTime            0                       # Total Idle time Per DRAM Rank (Tick)
system.mem_ctrl.dram.rank0.pwrStateTime::IDLE  18063727500                       # Time in different power states (Tick)
system.mem_ctrl.dram.rank0.pwrStateTime::REF 1227908240000                       # Time in different power states (Tick)
system.mem_ctrl.dram.rank0.pwrStateTime::SREF            0                       # Time in different power states (Tick)
system.mem_ctrl.dram.rank0.pwrStateTime::PRE_PDN            0                       # Time in different power states (Tick)
system.mem_ctrl.dram.rank0.pwrStateTime::ACT 35526338868500                       # Time in different power states (Tick)
system.mem_ctrl.dram.rank0.pwrStateTime::ACT_PDN            0                       # Time in different power states (Tick)
system.mem_ctrl.dram.rank1.actEnergy      54267769920                       # Energy for activate commands per rank (pJ) (Joule)
system.mem_ctrl.dram.rank1.preEnergy      28844003760                       # Energy for precharge commands per rank (pJ) (Joule)
system.mem_ctrl.dram.rank1.readEnergy     94937845380                       # Energy for read commands per rank (pJ) (Joule)
system.mem_ctrl.dram.rank1.writeEnergy       22023180                       # Energy for write commands per rank (pJ) (Joule)
system.mem_ctrl.dram.rank1.refreshEnergy 2902775079360.000488                       # Energy for refresh commands per rank (pJ) (Joule)
system.mem_ctrl.dram.rank1.actBackEnergy 11993440747260                       # Energy for active background per rank (pJ) (Joule)
system.mem_ctrl.dram.rank1.preBackEnergy 4020827784480                       # Energy for precharge background per rank (pJ) (Joule)
system.mem_ctrl.dram.rank1.actPowerDownEnergy            0                       # Energy for active power-down per rank (pJ) (Joule)
system.mem_ctrl.dram.rank1.prePowerDownEnergy            0                       # Energy for precharge power-down per rank (pJ) (Joule)
system.mem_ctrl.dram.rank1.selfRefreshEnergy            0                       # Energy for self refresh per rank (pJ) (Joule)
system.mem_ctrl.dram.rank1.totalEnergy   19095115253340                       # Total energy per rank (pJ) (Joule)
system.mem_ctrl.dram.rank1.averagePower    519.279719                       # Core power per rank (mW) (Watt)
system.mem_ctrl.dram.rank1.totalIdleTime            0                       # Total Idle time Per DRAM Rank (Tick)
system.mem_ctrl.dram.rank1.pwrStateTime::IDLE 10338845907750                       # Time in different power states (Tick)
system.mem_ctrl.dram.rank1.pwrStateTime::REF 1227908240000                       # Time in different power states (Tick)
system.mem_ctrl.dram.rank1.pwrStateTime::SREF            0                       # Time in different power states (Tick)
system.mem_ctrl.dram.rank1.pwrStateTime::PRE_PDN            0                       # Time in different power states (Tick)
system.mem_ctrl.dram.rank1.pwrStateTime::ACT 25205556688250                       # Time in different power states (Tick)
system.mem_ctrl.dram.rank1.pwrStateTime::ACT_PDN            0                       # Time in different power states (Tick)
system.mem_ctrl.power_state.pwrStateResidencyTicks::UNDEFINED 36772310836000                       # Cumulative time (in ticks) in various power states (Tick)
system.membus.transDist::ReadReq            719714617                       # Transaction distribution (Count)
system.membus.transDist::ReadResp           719714617                       # Transaction distribution (Count)
system.membus.transDist::WriteReq            18611600                       # Transaction distribution (Count)
system.membus.transDist::WriteResp           18611600                       # Transaction distribution (Count)
system.membus.pktCount_system.cpu.icache_port::system.mem_ctrl.port   1127622574                       # Packet count per connected requestor and responder (Count)
system.membus.pktCount_system.cpu.dcache_port::system.mem_ctrl.port    349029860                       # Packet count per connected requestor and responder (Count)
system.membus.pktCount::total              1476652434                       # Packet count per connected requestor and responder (Count)
system.membus.pktSize_system.cpu.icache_port::system.mem_ctrl.port   2255245148                       # Cumulative packet size per connected requestor and responder (Byte)
system.membus.pktSize_system.cpu.dcache_port::system.mem_ctrl.port    845364446                       # Cumulative packet size per connected requestor and responder (Byte)
system.membus.pktSize::total               3100609594                       # Cumulative packet size per connected requestor and responder (Byte)
system.membus.snoops                                0                       # Total snoops (Count)
system.membus.snoopTraffic                          0                       # Total snoop traffic (Byte)
system.membus.snoopFanout::samples          738326217                       # Request fanout histogram (Count)
system.membus.snoopFanout::mean                     0                       # Request fanout histogram (Count)
system.membus.snoopFanout::stdev                    0                       # Request fanout histogram (Count)
system.membus.snoopFanout::underflows               0      0.00%      0.00% # Request fanout histogram (Count)
system.membus.snoopFanout::0                738326217    100.00%    100.00% # Request fanout histogram (Count)
system.membus.snoopFanout::1                        0      0.00%    100.00% # Request fanout histogram (Count)
system.membus.snoopFanout::overflows                0      0.00%    100.00% # Request fanout histogram (Count)
system.membus.snoopFanout::min_value                0                       # Request fanout histogram (Count)
system.membus.snoopFanout::max_value                0                       # Request fanout histogram (Count)
system.membus.snoopFanout::total            738326217                       # Request fanout histogram (Count)
system.membus.power_state.pwrStateResidencyTicks::UNDEFINED 36772310836000                       # Cumulative time (in ticks) in various power states (Tick)
system.membus.reqLayer0.occupancy        756937817000                       # Layer occupancy (ticks) (Tick)
system.membus.reqLayer0.utilization               0.0                       # Layer utilization (Ratio)
system.membus.respLayer0.occupancy       1277972499000                       # Layer occupancy (ticks) (Tick)
system.membus.respLayer0.utilization              0.0                       # Layer utilization (Ratio)
system.membus.respLayer1.occupancy       368159733250                       # Layer occupancy (ticks) (Tick)
system.membus.respLayer1.utilization              0.0                       # Layer utilization (Ratio)
system.membus.snoop_filter.totRequests              0                       # Total number of requests made to the snoop filter. (Count)
system.membus.snoop_filter.hitSingleRequests            0                       # Number of requests hitting in the snoop filter with a single holder of the requested data. (Count)
system.membus.snoop_filter.hitMultiRequests            0                       # Number of requests hitting in the snoop filter with multiple (>1) holders of the requested data. (Count)
system.membus.snoop_filter.totSnoops                0                       # Total number of snoops made to the snoop filter. (Count)
system.membus.snoop_filter.hitSingleSnoops            0                       # Number of snoops hitting in the snoop filter with a single holder of the requested data. (Count)
system.membus.snoop_filter.hitMultiSnoops            0                       # Number of snoops hitting in the snoop filter with multiple (>1) holders of the requested data. (Count)
system.workload.inst.arm                            0                       # number of arm instructions executed (Count)
system.workload.inst.quiesce                        0                       # number of quiesce instructions executed (Count)

---------- End Simulation Statistics   ----------
